Version 4
SHEET 1 1256 868
WIRE -1296 160 -1296 128
WIRE -1184 160 -1184 128
WIRE -720 176 -720 144
WIRE -928 192 -928 160
WIRE -1296 272 -1296 240
WIRE -1184 272 -1184 240
WIRE -928 288 -928 272
WIRE -848 288 -928 288
WIRE -720 288 -720 256
WIRE -720 288 -784 288
WIRE -928 304 -928 288
WIRE -720 320 -720 288
WIRE -928 400 -928 384
WIRE -928 400 -1040 400
WIRE -928 416 -928 400
WIRE -1040 432 -1040 400
WIRE -720 432 -720 400
WIRE -1040 512 -1040 496
WIRE -928 512 -928 496
WIRE -928 512 -1040 512
WIRE -928 544 -928 512
FLAG -1296 128 VDD
FLAG -1040 400 V_OC
FLAG -928 544 0
FLAG -1296 272 0
FLAG -928 160 VDD
FLAG -720 432 0
FLAG -1184 128 V_HV
FLAG -1184 272 0
FLAG -720 144 V_HV
SYMBOL diode -848 304 R270
WINDOW 0 32 32 VTop 2
WINDOW 3 0 32 VBottom 2
SYMATTR InstName D1
SYMATTR Value DI_RS1K
SYMBOL res -944 176 R0
SYMATTR InstName R1
SYMATTR Value 1k
SYMBOL res -944 288 R0
SYMATTR InstName R2
SYMATTR Value 3.3k
SYMBOL res -944 400 R0
SYMATTR InstName R3
SYMATTR Value 1k
SYMBOL voltage -1296 144 R0
WINDOW 123 0 0 Left 0
WINDOW 39 0 0 Left 0
SYMATTR InstName V1
SYMATTR Value 15
SYMBOL cap -1056 432 R0
SYMATTR InstName C1
SYMATTR Value 0.1n
SYMBOL current -720 176 R0
WINDOW 123 0 0 Left 0
WINDOW 39 0 0 Left 0
SYMATTR InstName I1
SYMATTR Value PULSE(0 22 0 100u 100u 0 200u)
SYMBOL res -736 304 R0
SYMATTR InstName R5
SYMATTR Value 120m
SYMBOL voltage -1184 144 R0
WINDOW 123 0 0 Left 0
WINDOW 39 0 0 Left 0
SYMATTR InstName V2
SYMATTR Value 400
TEXT -656 40 Left 2 !.tran 0 200u 0
TEXT -656 16 Left 2 !.inc RS1K.lib
