Version 4
SHEET 1 1884 1284
WIRE -1344 144 -1344 112
WIRE -944 144 -944 112
WIRE -560 144 -560 112
WIRE -1344 256 -1344 224
WIRE -944 256 -944 224
WIRE -560 256 -560 224
WIRE 352 256 352 224
WIRE 432 256 432 224
WIRE -112 288 -176 288
WIRE 208 288 144 288
WIRE -112 352 -176 352
WIRE 208 352 144 352
WIRE 352 352 352 320
WIRE 352 352 288 352
WIRE 448 352 352 352
WIRE 512 352 448 352
WIRE 576 352 512 352
WIRE 768 352 576 352
WIRE 288 384 144 384
WIRE 432 384 432 320
WIRE 432 384 368 384
WIRE 512 384 512 352
WIRE 512 384 432 384
WIRE 448 400 448 352
WIRE -640 416 -640 384
WIRE -544 416 -544 384
WIRE -448 416 -448 384
WIRE 256 416 144 416
WIRE -112 432 -176 432
WIRE -1344 448 -1344 416
WIRE -112 464 -176 464
WIRE 256 480 256 416
WIRE 288 480 256 480
WIRE 400 480 368 480
WIRE 208 496 144 496
WIRE -640 528 -640 496
WIRE -640 528 -688 528
WIRE -112 528 -640 528
WIRE 336 528 144 528
WIRE 448 528 448 496
WIRE 336 544 336 528
WIRE -1344 560 -1344 528
WIRE -544 560 -544 496
WIRE -544 560 -688 560
WIRE -112 560 -544 560
WIRE -448 592 -448 496
WIRE -448 592 -688 592
WIRE -112 592 -448 592
WIRE 208 592 208 496
WIRE 208 592 144 592
WIRE 272 592 208 592
WIRE -640 624 -640 528
WIRE -544 624 -544 560
WIRE -112 624 -208 624
WIRE 272 640 272 592
WIRE 336 640 336 624
WIRE 336 640 272 640
WIRE -208 656 -208 624
WIRE 208 656 144 656
WIRE 336 656 336 640
WIRE -640 704 -640 688
WIRE -544 704 -544 688
WIRE -1344 752 -1344 720
WIRE -208 768 -208 736
WIRE -1344 864 -1344 832
FLAG 576 352 OUT_H
FLAG 208 288 VDD
FLAG -176 288 VCC
FLAG -176 432 PWM+
FLAG -688 528 FAULT_H
FLAG -688 560 READY_H
FLAG -176 352 0
FLAG -1344 256 0
FLAG -944 256 0
FLAG -560 256 0
FLAG -1344 560 0
FLAG -1344 864 0
FLAG -1344 112 VCC
FLAG -944 112 VDD
FLAG -560 112 VEE
FLAG -1344 416 PWM+
FLAG -1344 720 PWM-
FLAG -208 768 0
FLAG 208 656 VEE
FLAG 336 656 0
FLAG 448 528 VEE
FLAG -640 384 VCC
FLAG -544 384 VCC
FLAG -640 704 0
FLAG -544 704 0
FLAG -448 384 VCC
FLAG -688 592 EN
FLAG 352 224 0
FLAG 432 224 0
FLAG -176 464 PWM-
SYMBOL AutoGenerated\\UCC21732 16 480 R0
SYMATTR InstName U1
SYMBOL voltage -1344 128 R0
WINDOW 123 0 0 Left 0
WINDOW 39 0 0 Left 0
SYMATTR InstName V1
SYMATTR Value PULSE(0 3.3 0 1n 0 1m)
SYMBOL voltage -944 128 R0
WINDOW 123 0 0 Left 0
WINDOW 39 0 0 Left 0
SYMATTR InstName V2
SYMATTR Value PULSE(0 15 0 1n 0 1m)
SYMBOL voltage -560 128 R0
WINDOW 123 0 0 Left 0
WINDOW 39 0 0 Left 0
SYMATTR InstName V3
SYMATTR Value PULSE(0 -5 0 1n 0 1m)
SYMBOL voltage -1344 432 R0
WINDOW 123 0 0 Left 0
WINDOW 39 0 0 Left 0
SYMATTR InstName V4
SYMATTR Value PULSE(0 3.3 40u 100n 100n 5u 10u)
SYMBOL voltage -1344 736 R0
WINDOW 123 0 0 Left 0
WINDOW 39 0 0 Left 0
SYMATTR InstName V5
SYMATTR Value PULSE(3.3 0 40u 100n 100n 5u 10u)
SYMBOL res -224 640 R0
SYMATTR InstName R1
SYMATTR Value 10k
SYMBOL res 320 528 R0
SYMATTR InstName R2
SYMATTR Value 10k
SYMBOL nmos 400 400 R0
SYMATTR InstName M1
SYMATTR Value IRFML8244PBF
SYMATTR Prefix X
SYMBOL res 304 336 R90
WINDOW 0 0 56 VBottom 2
WINDOW 3 32 56 VTop 2
SYMATTR InstName R3
SYMATTR Value 1
SYMBOL res 384 368 R90
WINDOW 0 0 56 VBottom 2
WINDOW 3 32 56 VTop 2
SYMATTR InstName R4
SYMATTR Value 1
SYMBOL res 384 464 R90
WINDOW 0 0 56 VBottom 2
WINDOW 3 32 56 VTop 2
SYMATTR InstName R5
SYMATTR Value 2
SYMBOL res -656 400 R0
SYMATTR InstName R10
SYMATTR Value 1k
SYMBOL res -560 400 R0
SYMATTR InstName R11
SYMATTR Value 1k
SYMBOL cap -656 624 R0
SYMATTR InstName C2
SYMATTR Value 100p
SYMBOL cap -560 624 R0
SYMATTR InstName C3
SYMATTR Value 100p
SYMBOL res -464 400 R0
SYMATTR InstName R12
SYMATTR Value 1k
SYMBOL cap 336 256 R0
SYMATTR InstName C1
SYMATTR Value 100p
SYMBOL cap 416 256 R0
SYMATTR InstName C5
SYMATTR Value 100p
TEXT -104 144 Left 2 !.inc IRFML8244PBF.lib
TEXT -104 120 Left 2 !.inc UCC21732.lib
TEXT -104 168 Left 2 !.tran 0 100u 0
