Version 4
SHEET 1 1412 680
WIRE -1008 -112 -1008 -144
WIRE -864 -112 -864 -144
WIRE -720 -112 -720 -144
WIRE 368 -32 368 -64
WIRE 432 -16 400 -16
WIRE 464 -16 432 -16
WIRE -1008 0 -1008 -32
WIRE -864 0 -864 -32
WIRE -720 0 -720 -32
WIRE 96 48 64 48
WIRE 320 48 176 48
WIRE 432 48 432 -16
WIRE 432 48 400 48
WIRE 368 144 368 80
WIRE 640 144 368 144
WIRE 640 192 640 144
WIRE -1008 208 -1008 176
WIRE -560 208 -560 176
WIRE 368 208 368 144
WIRE 432 224 400 224
WIRE 464 224 432 224
WIRE 96 288 64 288
WIRE 320 288 176 288
WIRE 432 288 432 224
WIRE 432 288 400 288
WIRE -1008 320 -1008 288
WIRE -560 320 -560 288
WIRE 640 320 640 272
WIRE 368 416 368 320
FLAG -1008 -144 VDD
FLAG -1008 176 PWM+
FLAG 64 48 PWM+
FLAG -864 0 0
FLAG -864 -144 V_HV
FLAG -720 0 0
FLAG 368 416 0
FLAG 64 288 PWM-
FLAG -720 -144 Temp
FLAG 464 -16 Temp
FLAG 464 224 Temp
FLAG 368 -64 V_HV
FLAG 368 144 Phase
FLAG -560 320 0
FLAG -560 176 PWM-
FLAG -1008 320 Phase
FLAG -1008 0 Phase
FLAG 640 320 0
SYMBOL nmos_TO247_3L 320 -32 R0
SYMATTR Value C3M0120090D
SYMATTR InstName U1
SYMBOL voltage -1008 -128 R0
WINDOW 123 0 0 Left 0
WINDOW 39 0 0 Left 0
SYMATTR InstName V1
SYMATTR Value 15
SYMBOL voltage -1008 192 R0
WINDOW 123 0 0 Left 0
WINDOW 39 0 0 Left 0
SYMATTR InstName V2
SYMATTR Value PULSE(-5 15 0 10n 10n 50u 100u)
SYMBOL voltage -864 -128 R0
WINDOW 123 0 0 Left 0
WINDOW 39 0 0 Left 0
SYMATTR InstName V3
SYMATTR Value 400
SYMBOL voltage -720 -128 R0
WINDOW 123 0 0 Left 0
WINDOW 39 0 0 Left 0
SYMATTR InstName V4
SYMATTR Value 25
SYMBOL nmos_TO247_3L 320 208 R0
SYMATTR Value C3M0120090D
SYMATTR InstName U2
SYMBOL voltage -560 192 R0
WINDOW 123 0 0 Left 0
WINDOW 39 0 0 Left 0
SYMATTR InstName V5
SYMATTR Value PULSE(15 -5 0 10n 10n 50u 100u)
SYMBOL res 192 32 R90
WINDOW 0 0 56 VBottom 2
WINDOW 3 32 56 VTop 2
SYMATTR InstName R5
SYMATTR Value 10
SYMBOL res 192 272 R90
WINDOW 0 0 56 VBottom 2
WINDOW 3 32 56 VTop 2
SYMATTR InstName R6
SYMATTR Value 10
SYMBOL ind 624 176 R0
SYMATTR InstName L1
SYMATTR Value 1µ
TEXT -336 -200 Left 2 !.inc C3M0120090D.lib
TEXT -336 -176 Left 2 !.tran 0 200u 0
